/*--------------------------------*- C++ -*----------------------------------*\
| =========                 |                                                 |
| \\      /  F ield         | OpenFOAM: The Open Source CFD Toolbox           |
|  \\    /   O peration     | Version:  2.2.1                                 |
|   \\  /    A nd           | Web:      www.OpenFOAM.org                      |
|    \\/     M anipulation  |                                                 |
\*---------------------------------------------------------------------------*/
FoamFile
{
    version     2.0;
    format      ascii;
    class       volScalarField;
    location    "0";
    object      k;
}
// * * * * * * * * * * * * * * * * * * * * * * * * * * * * * * * * * * * * * //

dimensions      [0 2 -2 0 0 0 0];

internalField   uniform 0.0013204633500000001;

boundaryField
{
    Inlet
    {
        type            fixedValue;
        value           uniform 0.0013204633500000001;
    }

    Outlet
    {
        type            zeroGradient;
    }

    Open
    {        
	type            zeroGradient;
    }

    Wall
    {
        type            kqRWallFunction;
        value           uniform 0;
    }

}


// ************************************************************************* //
